LAMMPS (22 Jul 2025)
# Units, atoms, boundary condition
units lj
atom_style full
boundary p p p

# Bead Interaction
pair_style hybrid/overlay dpd 1.0 1.0 123 coul/slater/cut 1.185307217552 2.0
bond_style harmonic
angle_style cosine/squared
#kspace_style pppm 1.0e-2

# Load data, set velocities
read_data /home/gabriel/Dokumente/bachelor_thesis/dpd_simulation/lipid_self_assembly/setup/lammps.data
Reading data file ...
  orthogonal box = (0 0 0) to (70 70 70)
  reading atoms ...
  2816 atoms
  scanning bonds ...
  scanning angles ...
  orthogonal box = (0 0 0) to (70 70 70)
  reading bonds ...
  1408 bonds
  reading angles ...
  1024 angles
Finding 1-2 1-3 1-4 neighbors ...
     3 = max # of 1-2 neighbors
     3 = max # of 1-3 neighbors
     6 = max # of 1-4 neighbors
     8 = max # of special neighbors
include pair.settings
pair_coeff 4 4 dpd 102.067126235101 4.5 1 # W - W
pair_coeff 4 1 dpd 130.61559292165586 4.5 1 # W - C1
pair_coeff 4 2 dpd 121.73384773028323 4.5 1 # W - C3
pair_coeff 4 3 dpd 108.4112299432243 4.5 1 # W - Na
pair_coeff 4 5 dpd 84.93804622316809 4.5 1 # W - Q0
pair_coeff 4 6 dpd 94.45420178535304 4.5 1 # W - Qa
pair_coeff 6 6 dpd 102.067126235101 4.5 1 # Qa - Qa
pair_coeff 6 1 dpd 130.61559292165586 4.5 1 # Qa - C1
pair_coeff 6 2 dpd 126.80913069678189 4.5 1 # Qa - C3
pair_coeff 6 3 dpd 108.4112299432243 4.5 1 # Qa - Na
pair_coeff 6 5 dpd 98.89507438103935 4.5 1 # Qa - Q0
pair_coeff 5 5 dpd 102.067126235101 4.5 1 # Q0 - Q0
pair_coeff 5 1 dpd 121.09943735947091 4.5 1 # Q0 - C1
pair_coeff 5 2 dpd 117.29297513459693 4.5 1 # Q0 - C3
pair_coeff 5 3 dpd 98.89507438103935 4.5 1 # Q0 - Na
pair_coeff 3 3 dpd 102.067126235101 4.5 1 # Na - Na
pair_coeff 3 1 dpd 115.38974402215993 4.5 1 # Na - C1
pair_coeff 3 2 dpd 115.38974402215993 4.5 1 # Na - C3
pair_coeff 2 2 dpd 102.067126235101 4.5 1 # C3 - C3
pair_coeff 2 1 dpd 102.067126235101 4.5 1 # C3 - C1
pair_coeff 1 1 dpd 102.067126235101 4.5 1 # C1 - C1
pair_coeff * * coul/slater/cut
dielectric 78.3

bond_coeff 1 150.0 0.5

angle_coeff 1 5.0 180.0
angle_coeff 2 5.0 180.0

comm_modify vel yes

# Naming
include group.settings
group lipid id 1:1536
1536 atoms in group lipid
group solvent id 361:2816
2456 atoms in group solvent
neigh_modify delay 0 check yes

# Settings for thermodynamic values
thermo 10
thermo_modify lost warn flush yes

# Set veloceties
velocity all create 1.0 123 dist gaussian

# -------------------------------------

# Step 1: minimize system energy
#minimize 1.0e-4 1.0e-6 10000 100000
#reset_timestep 0

# -------------------------------------

# Step 2: relax in npt (T=1, P=1)
timestep 0.01
fix 1 all npt temp 1.0 1.0 0.5 iso 1.0 1.0 0.5

# --------------------------------------

# Save trajectories and run
dump traj all custom 10 trajectories.lammpstrj id mol type xu yu zu
dump_modify traj sort id

run 10000
Generated 0 of 15 mixed pair_coeff terms from geometric mixing rule
Step          Temp          E_pair         E_mol          TotEng         Press          Volume
0   1              0              3444.7475      3446.247      -19.551738      343000
Averages over the last 501 of 1001 rows, steps 5000 to 10000:
Temp E_pair E_mol TotEng Press Volume
0.999853 0.157175 0.42404 2.08046 1.00203 4024.29
Loop time of 17.2488 on 1 procs for 10000 steps with 2816 atoms

unfix 1
undump traj
reset_timestep 0

# -------------------------------------
write_restart equilibriation.state
System init for write_restart ...
Generated 0 of 15 mixed pair_coeff terms from geometric mixing rule
write_data equilibriated.data
System init for write_data ...
Generated 0 of 15 mixed pair_coeff terms from geometric mixing rule
