LAMMPS (22 Jul 2025)
units lj
atom_style full
boundary p p p

pair_style hybrid/overlay dpd 1.0 1.0 123 coul/slater/long 1.185307217552 2.0
bond_style harmonic
angle_style cosine/squared
kspace_style pppm 1.0e-4

read_restart /home/gabriel/Dokumente/bachelor_thesis/dpd_simulation/lipid_self_assembly/equilibriation/equilibriated.state
Reading restart file ...
  restart file = 22 Jul 2025, LAMMPS = 22 Jul 2025
  restoring atom style full from restart
  orthogonal box = (0 0 0) to (9.0177974 9.0177974 9.0177974)
  restoring pair style hybrid/overlay from restart
  restoring bond style harmonic from restart
  restoring angle style cosine/squared from restart
  2200 atoms
  1100 bonds
  800 angles
Finding 1-2 1-3 1-4 neighbors ...
     3 = max # of 1-2 neighbors
     3 = max # of 1-3 neighbors
     6 = max # of 1-4 neighbors
     8 = max # of special neighbors
  read_restart CPU = 0.003 seconds

include pair.settings
pair_coeff 4 4 dpd 102.067126235101 4.5 1 # W - W
pair_coeff 4 1 dpd 130.61559292165586 4.5 1 # W - C1
pair_coeff 4 2 dpd 121.73384773028323 4.5 1 # W - C3
pair_coeff 4 3 dpd 108.4112299432243 4.5 1 # W - Na
pair_coeff 4 5 dpd 84.93804622316809 4.5 1 # W - Q0
pair_coeff 4 6 dpd 94.45420178535304 4.5 1 # W - Qa
pair_coeff 6 6 dpd 102.067126235101 4.5 1 # Qa - Qa
pair_coeff 6 1 dpd 130.61559292165586 4.5 1 # Qa - C1
pair_coeff 6 2 dpd 126.80913069678189 4.5 1 # Qa - C3
pair_coeff 6 3 dpd 108.4112299432243 4.5 1 # Qa - Na
pair_coeff 6 5 dpd 98.89507438103935 4.5 1 # Qa - Q0
pair_coeff 5 5 dpd 102.067126235101 4.5 1 # Q0 - Q0
pair_coeff 5 1 dpd 121.09943735947091 4.5 1 # Q0 - C1
pair_coeff 5 2 dpd 117.29297513459693 4.5 1 # Q0 - C3
pair_coeff 5 3 dpd 98.89507438103935 4.5 1 # Q0 - Na
pair_coeff 3 3 dpd 102.067126235101 4.5 1 # Na - Na
pair_coeff 3 1 dpd 115.38974402215993 4.5 1 # Na - C1
pair_coeff 3 2 dpd 115.38974402215993 4.5 1 # Na - C3
pair_coeff 2 2 dpd 102.067126235101 4.5 1 # C3 - C3
pair_coeff 2 1 dpd 102.067126235101 4.5 1 # C3 - C1
pair_coeff 1 1 dpd 102.067126235101 4.5 1 # C1 - C1
pair_coeff * * coul/slater/long
dielectric 78.3

bond_coeff 1 253.5 0.661
bond_coeff 2 253.5 0.520

angle_coeff 1 10.0 180.0
angle_coeff 2 10.0 120.0
angle_coeff 3 18.0 120.0

comm_modify vel yes

neigh_modify delay 0 check yes

thermo 10000
thermo_modify lost warn flush yes

timestep 0.01

dump traj_prod all custom 11000 trajectories_prod.lammpstrj id mol type x y z
dump_modify traj_prod sort id

# ==================
# Cool down to T=1.0
# ==================
fix 1 all nvt temp 3.0 1.0 0.5

run 100000
PPPM initialization ...
  G vector (1/distance) = 1.0038477
  grid = 12 12 12
  stencil order = 5
  estimated absolute RMS force accuracy = 6.5566382e-05
  estimated relative force accuracy = 6.5566382e-05
  3d grid and FFT values/proc = 4913 1728
Generated 0 of 15 mixed pair_coeff terms from geometric mixing rule
For more information see https://docs.lammps.org/err0027 (src/domain.cpp:1052)
Step          Temp          E_pair         E_mol          TotEng         Press
0   2.9385855      11.806738      1.850177       18.06279       80.30231
Averages over the last 6 of 11 rows, steps 50000 to 100000:
Temp E_pair E_mol TotEng Press
1.50238 9.89174 1.20493 13.3492 75.1225
Loop time of 516.67 on 1 procs for 100000 steps with 2200 atoms

unfix 1

# ===================
# Production at T=1.0
# ===================
fix 2 all nvt temp 1.0 1.0 0.5

run 1000000
PPPM initialization ...
  G vector (1/distance) = 1.0038477
  grid = 12 12 12
  stencil order = 5
  estimated absolute RMS force accuracy = 6.5566382e-05
  estimated relative force accuracy = 6.5566382e-05
  3d grid and FFT values/proc = 4913 1728
Generated 0 of 15 mixed pair_coeff terms from geometric mixing rule
For more information see https://docs.lammps.org/err0027 (src/domain.cpp:1052)
Step          Temp          E_pair         E_mol          TotEng         Press
100000   0.99608011     9.1367746      1.0176107      11.647826      74.002951
Averages over the last 33 of 66 rows, steps 430000 to 750000:
Temp E_pair E_mol TotEng Press
1.00654 9.03821 1.00893 11.5563 72.3402
